11855
     RDKit          2D

 11 11  0  0  0  0  0  0  0  0999 V2000
    3.7320    1.5000    0.0000 Cl  0  0  0  0  0  0  0  0  0  0  0  0
    5.4641    0.5000    0.0000 Cl  0  0  0  0  0  0  0  0  0  0  0  0
    2.0000    0.5000    0.0000 Cl  0  0  0  0  0  0  0  0  0  0  0  0
    2.0000   -1.5000    0.0000 Cl  0  0  0  0  0  0  0  0  0  0  0  0
    5.4641   -1.5000    0.0000 Cl  0  0  0  0  0  0  0  0  0  0  0  0
    3.7320    0.5000    0.0000 C   0  0  0  0  0  0  0  0  0  0  0  0
    4.5981    0.0000    0.0000 C   0  0  0  0  0  0  0  0  0  0  0  0
    2.8660    0.0000    0.0000 C   0  0  0  0  0  0  0  0  0  0  0  0
    2.8660   -1.0000    0.0000 C   0  0  0  0  0  0  0  0  0  0  0  0
    4.5981   -1.0000    0.0000 C   0  0  0  0  0  0  0  0  0  0  0  0
    3.7320   -1.5000    0.0000 C   0  0  0  0  0  0  0  0  0  0  0  0
  1  6  1  0
  2  7  1  0
  3  8  1  0
  4  9  1  0
  5 10  1  0
  6  7  2  0
  6  8  1  0
  7 10  1  0
  8  9  2  0
  9 11  1  0
 10 11  2  0
M  END
>  <PUBCHEM_COMPOUND_CID>  (1) 
11855

>  <PUBCHEM_COMPOUND_CANONICALIZED>  (1) 
1

>  <PUBCHEM_CACTVS_COMPLEXITY>  (1) 
125

>  <PUBCHEM_CACTVS_HBOND_ACCEPTOR>  (1) 
0

>  <PUBCHEM_CACTVS_HBOND_DONOR>  (1) 
0

>  <PUBCHEM_CACTVS_ROTATABLE_BOND>  (1) 
0

>  <PUBCHEM_CACTVS_SUBSKEYS>  (1) 
AAADcQBgAAAHAAAAAAAAAAAAAAAAAAAAAAAwAAAAAAAAAAABAAAAGAIAAAAACAKAECAwAIAAAACAACBCAAACAAAgBQAAikAAAogIICKBEhCAIAAggAAIiAcAAAAAAAAQAACAAAQAACAAAQAACAAAAAAAAA==

>  <PUBCHEM_IUPAC_OPENEYE_NAME>  (1) 
1,2,3,4,5-pentachlorobenzene

>  <PUBCHEM_IUPAC_CAS_NAME>  (1) 
1,2,3,4,5-pentachlorobenzene

>  <PUBCHEM_IUPAC_NAME_MARKUP>  (1) 
1,2,3,4,5-pentachlorobenzene

>  <PUBCHEM_IUPAC_NAME>  (1) 
1,2,3,4,5-pentachlorobenzene

>  <PUBCHEM_IUPAC_SYSTEMATIC_NAME>  (1) 
1,2,3,4,5-pentakis(chloranyl)benzene

>  <PUBCHEM_IUPAC_TRADITIONAL_NAME>  (1) 
1,2,3,4,5-pentachlorobenzene

>  <PUBCHEM_IUPAC_INCHI>  (1) 
InChI=1S/C6HCl5/c7-2-1-3(8)5(10)6(11)4(2)9/h1H

>  <PUBCHEM_IUPAC_INCHIKEY>  (1) 
CEOCDNVZRAIOQZ-UHFFFAOYSA-N

>  <PUBCHEM_XLOGP3>  (1) 
5.2

>  <PUBCHEM_EXACT_MASS>  (1) 
249.849138

>  <PUBCHEM_MOLECULAR_FORMULA>  (1) 
C6HCl5

>  <PUBCHEM_MOLECULAR_WEIGHT>  (1) 
250.3

>  <PUBCHEM_OPENEYE_CAN_SMILES>  (1) 
C1=C(C(=C(C(=C1Cl)Cl)Cl)Cl)Cl

>  <PUBCHEM_OPENEYE_ISO_SMILES>  (1) 
C1=C(C(=C(C(=C1Cl)Cl)Cl)Cl)Cl

>  <PUBCHEM_CACTVS_TPSA>  (1) 
0

>  <PUBCHEM_MONOISOTOPIC_WEIGHT>  (1) 
247.852089

>  <PUBCHEM_TOTAL_CHARGE>  (1) 
0

>  <PUBCHEM_HEAVY_ATOM_COUNT>  (1) 
11

>  <PUBCHEM_ATOM_DEF_STEREO_COUNT>  (1) 
0

>  <PUBCHEM_ATOM_UDEF_STEREO_COUNT>  (1) 
0

>  <PUBCHEM_BOND_DEF_STEREO_COUNT>  (1) 
0

>  <PUBCHEM_BOND_UDEF_STEREO_COUNT>  (1) 
0

>  <PUBCHEM_ISOTOPIC_ATOM_COUNT>  (1) 
0

>  <PUBCHEM_COMPONENT_COUNT>  (1) 
1

>  <PUBCHEM_CACTVS_TAUTO_COUNT>  (1) 
-1

>  <PUBCHEM_COORDINATE_TYPE>  (1) 
1
5
255

>  <PUBCHEM_BONDANNOTATIONS>  (1) 
10  11  8
6  7  8
6  8  8
7  10  8
8  9  8
9  11  8

>  <PREDICTED SPECTRUM>  (1) 
0 421
1 147
2 372
3 161
4 363
5 85
6 364
9 86
11 346
13 288
14 573
16 340
17 475
19 548
20 189
22 42
23 487
24 150
25 235
27 641
28 77
29 308
30 528
31 20
35 116
36 104
38 69
39 261
40 300
43 218
44 230
45 109
46 95
47 389
48 339
49 513
51 188
52 219
54 83
55 286
57 466
60 538
63 568
65 444
66 131
69 659
70 517
74 531
78 177
79 230
80 203
81 36
83 253
84 341
85 999
86 289
87 62
88 407
91 585
93 105
94 36
96 364
97 638
98 689
99 604
101 242
102 437
103 52
108 431
111 343
112 492
114 107
116 402
117 530
122 88
125 498
127 295
128 165
129 338
131 245
132 122
136 130
139 106
141 301
142 288
144 815
147 332
148 444
149 17
150 52
161 263
170 472
171 828
172 839
173 128
174 280
177 25
178 76
179 862
181 405
182 394
183 208
185 82
189 208
190 271
194 284
196 98
198 172
200 314
202 184
203 260
204 32
206 256
207 846
209 451
210 170
211 145
212 814
216 370
224 32
226 172
228 77
231 678
232 295
234 310
236 96
239 188
240 184
244 50
246 68
249 556
250 351
251 689
252 392
253 76

$$$$
