
  CDK     01262310412D

 25 24  0  0  0  0  0  0  0  0999 V2000
  -19.1608   10.6875    0.0000 C   0  0  0  0  0  0  0  0  0  0  0  0
    5.5209    9.9375    0.0000 C   0  0  0  0  0  0  0  0  0  0  0  0
    4.2219   12.1875    0.0000 C   0  0  0  0  0  0  0  0  0  0  0  0
  -16.5627   12.1875    0.0000 C   0  0  0  0  0  0  0  0  0  0  0  0
   -0.9743   12.1875    0.0000 C   0  0  0  0  0  0  0  0  0  0  0  0
  -11.3666   12.1875    0.0000 C   0  0  0  0  0  0  0  0  0  0  0  0
   -6.1704   12.1875    0.0000 C   0  0  0  0  0  0  0  0  0  0  0  0
  -17.8618    9.9375    0.0000 C   0  0  0  0  0  0  0  0  0  0  0  0
    1.6238   10.6875    0.0000 C   0  0  0  0  0  0  0  0  0  0  0  0
  -13.9647   10.6875    0.0000 C   0  0  0  0  0  0  0  0  0  0  0  0
   -3.5724   10.6875    0.0000 C   0  0  0  0  0  0  0  0  0  0  0  0
   -8.7685   10.6875    0.0000 C   0  0  0  0  0  0  0  0  0  0  0  0
    2.9228    9.9375    0.0000 C   0  0  0  0  0  0  0  0  0  0  0  0
  -15.2637    9.9375    0.0000 C   0  0  0  0  0  0  0  0  0  0  0  0
    0.3248    9.9375    0.0000 C   0  0  0  0  0  0  0  0  0  0  0  0
  -12.6656    9.9375    0.0000 C   0  0  0  0  0  0  0  0  0  0  0  0
   -2.2733    9.9375    0.0000 C   0  0  0  0  0  0  0  0  0  0  0  0
  -10.0675    9.9375    0.0000 C   0  0  0  0  0  0  0  0  0  0  0  0
   -4.8714    9.9375    0.0000 C   0  0  0  0  0  0  0  0  0  0  0  0
   -7.4695    9.9375    0.0000 C   0  0  0  0  0  0  0  0  0  0  0  0
    4.2219   10.6875    0.0000 C   0  0  0  0  0  0  0  0  0  0  0  0
  -16.5627   10.6875    0.0000 C   0  0  0  0  0  0  0  0  0  0  0  0
   -0.9743   10.6875    0.0000 C   0  0  0  0  0  0  0  0  0  0  0  0
  -11.3666   10.6875    0.0000 C   0  0  0  0  0  0  0  0  0  0  0  0
   -6.1704   10.6875    0.0000 C   0  0  0  0  0  0  0  0  0  0  0  0
  8  1  1  0  0  0  0
 13  9  1  0  0  0  0
 14 10  1  0  0  0  0
 15  9  1  0  0  0  0
 16 10  1  0  0  0  0
 17 11  1  0  0  0  0
 18 12  1  0  0  0  0
 19 11  1  0  0  0  0
 20 12  1  0  0  0  0
 21  2  1  0  0  0  0
 21  3  1  0  0  0  0
 21 13  1  0  0  0  0
 22  4  1  0  0  0  0
 22  8  1  0  0  0  0
 22 14  1  0  0  0  0
 23  5  1  0  0  0  0
 23 15  1  0  0  0  0
 23 17  1  0  0  0  0
 24  6  1  0  0  0  0
 24 16  1  0  0  0  0
 24 18  1  0  0  0  0
 25  7  1  0  0  0  0
 25 19  1  0  0  0  0
 25 20  1  0  0  0  0
M  END
>  <NAME>
2,6,10,14,18-Pentamethylicosane

>  <SYNONYMS>


>  <SPECTRUM TYPE>
MS1

>  <INSTRUMENT TYPE>
EI-B

>  <INSTRUMENT>
JEOL AX-505HA

>  <ION MODE>
P

>  <INCHIKEY>
SJBLBJCIOBWHAC-UHFFFAOYSA-N

>  <FORMULA>
C25H52

>  <EXACT MASS>
352.406901664

>  <MW>
352

>  <ID>
UO000024

>  <CONTRIBUTOR>
Hiroyuki Morii, {University of Occupational and Enviromental Health

>  <COMMENT>
compound class=Hydrocarbon
SMILES=CCC(C)CCCC(C)CCCC(C)CCCC(C)CCCC(C)C
cas=51794-16-2
pubchem cid=521349
InChI=InChI=1S/C25H52/c1-8-22(4)14-10-16-24(6)18-12-20-25(7)19-11-17-23(5)15-9-13-21(2)3/h21-25H,8-20H2,1-7H3
computed SMILES=CCC(C)CCCC(C)CCCC(C)CCCC(C)CCCC(C)C
accession=UO000024
date=2016.01.19 (Created 2009.06.19, modified 2011.05.06)
author=Hiroyuki Morii, Department of Environmental Management, and Chemistry, University of Occupational and Environmental Health
license=CC BY-SA
publication=Morii, H., Yagi, H., Akutsu, H., Nomura, N., Sako, Y., and Koga, Y. 1999 A novel phosphoglycolipid archaetidyl(glucosyl)inositol with two sesterterpanyl chains from the aerobic hyperthermophilic archaeon Aeropyrum pernix K1 Biochim Biophys Acta. 1436 : 426-436
comment=[Analytical] CHCL3 solution
exact mass=352.4069
ion type=[M]+*
computed spectral entropy=3.7842634322012056
computed normalized entropy=0.8182239301670482
SPLASH=splash10-0abj-9510000000-6010401e1b1b0a558a82
submitter=submitter = Hiroyuki Morii (University of Occupational and Enviromental Health)
MoNA Rating=3.75

>  <NUM PEAKS>
102

>  <MASS SPECTRAL PEAKS>
32.0 4.404404
35.7 2.202202
37.7 0.700701
38.9 1.301301
40.2 0.400400
41.2 17.517518
42.0 4.204204
43.0 48.348348
43.6 1.601602
52.9 0.600601
53.8 0.600601
55.3 24.224224
56.3 21.621622
57.0 100.000000
58.0 5.905906
67.0 1.901902
68.0 1.901902
69.2 19.819820
70.4 20.420420
72.0 94.994995
73.0 6.606607
81.2 1.501502
82.3 1.201201
83.3 10.910911
84.2 10.410410
86.0 67.767768
86.5 5.205205
95.0 1.301301
96.2 7.907908
97.4 18.218218
98.1 6.906907
99.8 35.335335
100.0 2.902903
109.1 0.500501
110.1 1.301301
111.3 7.907908
112.4 20.820821
113.8 41.641642
114.0 4.004004
124.1 0.900901
125.3 6.606607
126.6 22.522523
127.0 43.143143
128.0 4.804805
138.2 0.100100
139.2 1.701702
140.1 5.805806
141.3 24.124124
142.0 2.702703
153.1 0.500501
154.3 5.605606
155.5 20.120120
156.2 2.502503
167.1 2.202202
168.3 4.804805
169.6 17.617618
170.2 2.402402
181.1 0.800801
182.4 17.017017
183.5 31.731732
184.0 5.005005
195.0 0.400400
196.4 16.216216
197.0 31.131131
198.3 5.005005
199.0 0.400400
210.3 1.401401
211.4 6.206206
212.0 1.001001
224.1 4.804805
225.2 8.108108
225.8 1.401401
238.2 4.604605
239.3 7.007007
240.0 1.301301
252.5 11.611612
253.3 18.518519
254.5 3.703704
255.1 0.300300
266.5 9.709710
267.0 17.117117
268.0 3.403403
269.0 0.300300
280.2 1.501502
281.1 2.102102
282.0 0.400400
294.1 0.900901
295.2 2.002002
296.3 0.400400
308.0 0.900901
309.3 1.601602
310.1 0.200200
322.5 2.702703
323.0 6.206206
324.4 1.501502
336.1 0.900901
337.2 5.705706
337.8 1.401401
350.4 0.100100
352.4 14.014014
353.2 3.903904
353.8 0.500501

>  <PREDICTED SPECTRUM>
20 20
30 30
40 40
50 50
60 60
70 70
80 80
90 90
100 100

$$$$

  CDK     01262310412D

 96 95  0  0  0  0  0  0  0  0999 V2000
    1.6238   20.8125    0.0000 C   0  0  0  0  0  0  0  0  0  0  0  0
  -12.6656   11.0625    0.0000 C   0  0  0  0  0  0  0  0  0  0  0  0
    6.8200   20.8125    0.0000 C   0  0  0  0  0  0  0  0  0  0  0  0
  -15.2637    6.5625    0.0000 C   0  0  0  0  0  0  0  0  0  0  0  0
  -20.4599   18.5625    0.0000 C   0  0  0  0  0  0  0  0  0  0  0  0
  -15.2637   29.0625    0.0000 C   0  0  0  0  0  0  0  0  0  0  0  0
  -15.2637   18.5625    0.0000 C   0  0  0  0  0  0  0  0  0  0  0  0
   -3.5724   20.8125    0.0000 C   0  0  0  0  0  0  0  0  0  0  0  0
  -10.0675   15.5625    0.0000 C   0  0  0  0  0  0  0  0  0  0  0  0
  -12.6656   24.5625    0.0000 C   0  0  0  0  0  0  0  0  0  0  0  0
   12.0161   20.8125    0.0000 C   0  0  0  0  0  0  0  0  0  0  0  0
  -17.8618    2.0625    0.0000 C   0  0  0  0  0  0  0  0  0  0  0  0
  -25.6560   18.5625    0.0000 C   0  0  0  0  0  0  0  0  0  0  0  0
  -17.8618   33.5625    0.0000 C   0  0  0  0  0  0  0  0  0  0  0  0
   -7.4695   24.5625    0.0000 C   0  0  0  0  0  0  0  0  0  0  0  0
   18.5113   23.0625    0.0000 C   0  0  0  0  0  0  0  0  0  0  0  0
  -23.0579   -2.4375    0.0000 C   0  0  0  0  0  0  0  0  0  0  0  0
  -32.1512   20.8125    0.0000 C   0  0  0  0  0  0  0  0  0  0  0  0
  -19.1608   40.3125    0.0000 C   0  0  0  0  0  0  0  0  0  0  0  0
    4.2219   22.3125    0.0000 C   0  0  0  0  0  0  0  0  0  0  0  0
  -15.2637    9.5625    0.0000 C   0  0  0  0  0  0  0  0  0  0  0  0
  -17.8618   20.0625    0.0000 C   0  0  0  0  0  0  0  0  0  0  0  0
   -0.9743   22.3125    0.0000 C   0  0  0  0  0  0  0  0  0  0  0  0
  -12.6656   14.0625    0.0000 C   0  0  0  0  0  0  0  0  0  0  0  0
  -12.6656   27.5625    0.0000 C   0  0  0  0  0  0  0  0  0  0  0  0
    9.4180   22.3125    0.0000 C   0  0  0  0  0  0  0  0  0  0  0  0
  -17.8618    5.0625    0.0000 C   0  0  0  0  0  0  0  0  0  0  0  0
  -23.0579   20.0625    0.0000 C   0  0  0  0  0  0  0  0  0  0  0  0
  -15.2637   32.0625    0.0000 C   0  0  0  0  0  0  0  0  0  0  0  0
  -12.6656   20.0625    0.0000 C   0  0  0  0  0  0  0  0  0  0  0  0
    2.9228   23.0625    0.0000 C   0  0  0  0  0  0  0  0  0  0  0  0
  -15.2637   11.0625    0.0000 C   0  0  0  0  0  0  0  0  0  0  0  0
    5.5209   23.0625    0.0000 C   0  0  0  0  0  0  0  0  0  0  0  0
  -16.5627    8.8125    0.0000 C   0  0  0  0  0  0  0  0  0  0  0  0
  -19.1608   20.8125    0.0000 C   0  0  0  0  0  0  0  0  0  0  0  0
  -16.5627   20.8125    0.0000 C   0  0  0  0  0  0  0  0  0  0  0  0
    0.3248   23.0625    0.0000 C   0  0  0  0  0  0  0  0  0  0  0  0
  -13.9647   13.3125    0.0000 C   0  0  0  0  0  0  0  0  0  0  0  0
  -12.6656   29.0625    0.0000 C   0  0  0  0  0  0  0  0  0  0  0  0
    8.1190   23.0625    0.0000 C   0  0  0  0  0  0  0  0  0  0  0  0
  -17.8618    6.5625    0.0000 C   0  0  0  0  0  0  0  0  0  0  0  0
  -21.7589   20.8125    0.0000 C   0  0  0  0  0  0  0  0  0  0  0  0
  -13.9647   31.3125    0.0000 C   0  0  0  0  0  0  0  0  0  0  0  0
   -2.2733   23.0625    0.0000 C   0  0  0  0  0  0  0  0  0  0  0  0
  -12.6656   15.5625    0.0000 C   0  0  0  0  0  0  0  0  0  0  0  0
  -11.3666   26.8125    0.0000 C   0  0  0  0  0  0  0  0  0  0  0  0
   10.7171   23.0625    0.0000 C   0  0  0  0  0  0  0  0  0  0  0  0
  -19.1608    4.3125    0.0000 C   0  0  0  0  0  0  0  0  0  0  0  0
  -24.3570   20.8125    0.0000 C   0  0  0  0  0  0  0  0  0  0  0  0
  -15.2637   33.5625    0.0000 C   0  0  0  0  0  0  0  0  0  0  0  0
  -13.9647   20.8125    0.0000 C   0  0  0  0  0  0  0  0  0  0  0  0
  -11.3666   20.8125    0.0000 C   0  0  0  0  0  0  0  0  0  0  0  0
   -4.8714   23.0625    0.0000 C   0  0  0  0  0  0  0  0  0  0  0  0
  -11.3666   17.8125    0.0000 C   0  0  0  0  0  0  0  0  0  0  0  0
  -10.0675   24.5625    0.0000 C   0  0  0  0  0  0  0  0  0  0  0  0
   -6.1704   22.3125    0.0000 C   0  0  0  0  0  0  0  0  0  0  0  0
  -10.0675   18.5625    0.0000 C   0  0  0  0  0  0  0  0  0  0  0  0
  -10.0675   23.0625    0.0000 C   0  0  0  0  0  0  0  0  0  0  0  0
   13.3151   23.0625    0.0000 C   0  0  0  0  0  0  0  0  0  0  0  0
  -20.4599    2.0625    0.0000 C   0  0  0  0  0  0  0  0  0  0  0  0
  -26.9550   20.8125    0.0000 C   0  0  0  0  0  0  0  0  0  0  0  0
  -16.5627   35.8125    0.0000 C   0  0  0  0  0  0  0  0  0  0  0  0
   14.6142   22.3125    0.0000 C   0  0  0  0  0  0  0  0  0  0  0  0
  -20.4599    0.5625    0.0000 C   0  0  0  0  0  0  0  0  0  0  0  0
  -28.2541   20.0625    0.0000 C   0  0  0  0  0  0  0  0  0  0  0  0
  -17.8618   36.5625    0.0000 C   0  0  0  0  0  0  0  0  0  0  0  0
   -8.7685   20.8125    0.0000 C   0  0  0  0  0  0  0  0  0  0  0  0
    1.6238   22.3125    0.0000 C   0  0  0  0  0  0  0  0  0  0  0  0
  -13.9647   11.8125    0.0000 C   0  0  0  0  0  0  0  0  0  0  0  0
    6.8200   22.3125    0.0000 C   0  0  0  0  0  0  0  0  0  0  0  0
  -16.5627    7.3125    0.0000 C   0  0  0  0  0  0  0  0  0  0  0  0
  -20.4599   20.0625    0.0000 C   0  0  0  0  0  0  0  0  0  0  0  0
  -13.9647   29.8125    0.0000 C   0  0  0  0  0  0  0  0  0  0  0  0
  -15.2637   20.0625    0.0000 C   0  0  0  0  0  0  0  0  0  0  0  0
   -3.5724   22.3125    0.0000 C   0  0  0  0  0  0  0  0  0  0  0  0
  -11.3666   16.3125    0.0000 C   0  0  0  0  0  0  0  0  0  0  0  0
  -11.3666   25.3125    0.0000 C   0  0  0  0  0  0  0  0  0  0  0  0
   12.0161   22.3125    0.0000 C   0  0  0  0  0  0  0  0  0  0  0  0
  -19.1608    2.8125    0.0000 C   0  0  0  0  0  0  0  0  0  0  0  0
  -25.6560   20.0625    0.0000 C   0  0  0  0  0  0  0  0  0  0  0  0
  -16.5627   34.3125    0.0000 C   0  0  0  0  0  0  0  0  0  0  0  0
   -7.4695   23.0625    0.0000 C   0  0  0  0  0  0  0  0  0  0  0  0
   17.2123   22.3125    0.0000 C   0  0  0  0  0  0  0  0  0  0  0  0
  -21.7589   -1.6875    0.0000 C   0  0  0  0  0  0  0  0  0  0  0  0
  -30.8522   20.0625    0.0000 C   0  0  0  0  0  0  0  0  0  0  0  0
  -19.1608   38.8125    0.0000 C   0  0  0  0  0  0  0  0  0  0  0  0
  -10.0675   20.0625    0.0000 C   0  0  0  0  0  0  0  0  0  0  0  0
   -8.7685   22.3125    0.0000 C   0  0  0  0  0  0  0  0  0  0  0  0
   17.2123   20.8125    0.0000 O   0  0  0  0  0  0  0  0  0  0  0  0
  -20.4599   -2.4375    0.0000 O   0  0  0  0  0  0  0  0  0  0  0  0
  -30.8522   18.5625    0.0000 O   0  0  0  0  0  0  0  0  0  0  0  0
  -20.4599   38.0625    0.0000 O   0  0  0  0  0  0  0  0  0  0  0  0
   15.9132   23.0625    0.0000 O   0  0  0  0  0  0  0  0  0  0  0  0
  -21.7589   -0.1875    0.0000 O   0  0  0  0  0  0  0  0  0  0  0  0
  -29.5531   20.8125    0.0000 O   0  0  0  0  0  0  0  0  0  0  0  0
  -17.8618   38.0625    0.0000 O   0  0  0  0  0  0  0  0  0  0  0  0
 31 20  1  0  0  0  0
 32 21  1  0  0  0  0
 33 20  1  0  0  0  0
 34 21  1  0  0  0  0
 35 22  1  0  0  0  0
 36 22  1  0  0  0  0
 37 23  1  0  0  0  0
 38 24  1  0  0  0  0
 39 25  1  0  0  0  0
 40 26  1  0  0  0  0
 41 27  1  0  0  0  0
 42 28  1  0  0  0  0
 43 29  1  0  0  0  0
 44 23  1  0  0  0  0
 45 24  1  0  0  0  0
 46 25  1  0  0  0  0
 47 26  1  0  0  0  0
 48 27  1  0  0  0  0
 49 28  1  0  0  0  0
 50 29  1  0  0  0  0
 51 30  1  0  0  0  0
 52 30  1  0  0  0  0
 56 53  1  0  0  0  0
 57 54  1  0  0  0  0
 58 55  1  0  0  0  0
 63 59  1  0  0  0  0
 64 60  1  0  0  0  0
 65 61  1  0  0  0  0
 66 62  1  0  0  0  0
 68  1  1  0  0  0  0
 68 31  1  0  0  0  0
 68 37  1  0  0  0  0
 69  2  1  0  0  0  0
 69 32  1  0  0  0  0
 69 38  1  0  0  0  0
 70  3  1  0  0  0  0
 70 33  1  0  0  0  0
 70 40  1  0  0  0  0
 71  4  1  0  0  0  0
 71 34  1  0  0  0  0
 71 41  1  0  0  0  0
 72  5  1  0  0  0  0
 72 35  1  0  0  0  0
 72 42  1  0  0  0  0
 73  6  1  0  0  0  0
 73 39  1  0  0  0  0
 73 43  1  0  0  0  0
 74  7  1  0  0  0  0
 74 36  1  0  0  0  0
 74 51  1  0  0  0  0
 75  8  1  0  0  0  0
 75 44  1  0  0  0  0
 75 53  1  0  0  0  0
 76  9  1  0  0  0  0
 76 45  1  0  0  0  0
 76 54  1  0  0  0  0
 77 10  1  0  0  0  0
 77 46  1  0  0  0  0
 77 55  1  0  0  0  0
 78 11  1  0  0  0  0
 78 47  1  0  0  0  0
 78 59  1  0  0  0  0
 79 12  1  0  0  0  0
 79 48  1  0  0  0  0
 79 60  1  0  0  0  0
 80 13  1  0  0  0  0
 80 49  1  0  0  0  0
 80 61  1  0  0  0  0
 81 14  1  0  0  0  0
 81 50  1  0  0  0  0
 81 62  1  0  0  0  0
 82 15  1  0  0  0  0
 82 56  1  0  0  0  0
 83 16  1  0  0  0  0
 84 17  1  0  0  0  0
 85 18  1  0  0  0  0
 86 19  1  0  0  0  0
 87 52  1  0  0  0  0
 87 57  1  0  0  0  0
 87 67  1  0  0  0  0
 88 58  1  0  0  0  0
 88 67  1  0  0  0  0
 88 82  1  0  0  0  0
 89 83  2  0  0  0  0
 90 84  2  0  0  0  0
 91 85  2  0  0  0  0
 92 86  2  0  0  0  0
 93 63  1  0  0  0  0
 93 83  1  0  0  0  0
 94 64  1  0  0  0  0
 94 84  1  0  0  0  0
 95 65  1  0  0  0  0
 95 85  1  0  0  0  0
 96 66  1  0  0  0  0
 96 86  1  0  0  0  0
M  END
>  <NAME>
H-shaped caldarchaeol alcohol tetraacetate

>  <SYNONYMS>


>  <SPECTRUM TYPE>
MS1

>  <INSTRUMENT TYPE>
EI-B

>  <INSTRUMENT>
JEOL AX-505HA

>  <ION MODE>
P

>  <INCHIKEY>
KPJQHWSCXRGXAB-UHFFFAOYSA-N

>  <FORMULA>
C88H170O8

>  <EXACT MASS>
1355.2895724

>  <MW>
1355

>  <ID>
UO000023

>  <CONTRIBUTOR>
Hiroyuki Morii, {University of Occupational and Enviromental Health

>  <COMMENT>
compound class=Prenol Lipids
SMILES=C(C(CC(CCCC(C)CCCC(CCCC(CCOC(C)=O)C)C)CCC(CCCC(C)CCCC(C)CCCC(C)CCOC(C)=O)C)CCC(CCCC(CCCC(C)CCOC(C)=O)C)C)(C)CCC(CCCC(CCCC(C)CCCC(C)CCOC(C)=O)C)C
pubchem cid=132993934
InChI=InChI=1S/C88H170O8/c1-68(31-20-33-70(3)40-26-47-78(11)59-63-93-83(16)89)37-23-44-75(8)53-56-82(15)88(58-55-77(10)46-25-39-73(6)43-29-50-81(14)62-66-96-86(19)92)67-87(52-30-51-74(7)36-22-35-72(5)42-28-49-80(13)61-65-95-85(18)91)57-54-76(9)45-24-38-69(2)32-21-34-71(4)41-27-48-79(12)60-64-94-84(17)90/h68-82,87-88H,20-67H2,1-19H3
computed SMILES=O=C(OCCC(C)CCCC(C)CCCC(C)CCCC(C)CCC(C)C(CCC(C)CCCC(C)CCCC(C)CCOC(=O)C)CC(CCCC(C)CCCC(C)CCCC(C)CCOC(=O)C)CCC(C)CCCC(C)CCCC(C)CCCC(C)CCOC(=O)C)C
accession=UO000023
date=2016.01.19 (Created 2009.06.10, modified 2011.05.06)
author=Hiroyuki Morii, Department of Chemistry, University of Occupational and Environmental Health
license=CC BY-SA
publication=Morii, H., Eguchi, T., Nishihara, M., Kakinuma, K., Konig, H., and Koga, Y. 1998. A novel ether core lipid with H-shaped C80-isoprenoid hydrocarbon chain from the hyperthermophilic methanogen Methanothermus fervidus. Biochim Biophys Acta. 1390 : 339-345
exact mass=1355.28957
ion type=[M]+
computed spectral entropy=4.520694746874273
computed normalized entropy=0.9287442734896625
SPLASH=splash10-004j-2094004000-5f0694f9a56e6ba9affe
submitter=submitter = Hiroyuki Morii (University of Occupational and Enviromental Health)
MoNA Rating=3.75

>  <NUM PEAKS>
130

>  <MASS SPECTRAL PEAKS>
263.0000 18.890065
264.0000 11.317907
265.0000 15.577950
266.0000 7.017970
267.0000 11.391626
269.0000 10.597204
277.0000 14.380247
278.0000 89.832096
279.0000 34.800180
280.0000 35.979671
281.0000 15.754007
283.0000 8.083848
291.0000 11.109762
292.0000 17.155519
293.0000 11.962291
294.0000 10.133213
295.0000 8.634566
297.0000 7.768161
298.0000 7.642406
305.0000 9.355270
307.0000 7.030979
319.0000 12.252827
320.0000 11.100222
321.0000 9.004891
325.0000 7.494103
333.0000 9.602442
334.0000 16.471241
335.0000 8.984077
336.0000 15.212829
337.0000 7.849684
339.0000 26.901929
340.0000 9.116770
347.0000 9.121106
348.0000 9.362208
353.0000 7.187088
361.0000 8.790675
367.0000 6.990217
368.0000 11.473149
375.0000 7.665823
389.0000 8.840110
403.0000 7.618123
417.0000 7.053528
543.0000 11.737667
544.0000 8.288524
556.0000 9.317110
557.0000 13.748005
558.0000 26.940089
559.0000 13.264934
571.0000 6.951190
601.0000 9.984042
615.0000 9.549539
616.0000 47.583779
617.0000 23.117151
618.0000 13.585825
629.0000 7.704850
630.0000 8.235621
663.0000 33.726497
664.0000 19.020155
675.0000 7.467217
676.0000 60.154895
677.0000 93.751301
678.0000 54.613023
679.0000 15.222369
691.0000 29.253972
692.0000 15.879761
693.0000 6.950323
881.0000 7.022306
896.0000 14.274440
897.0000 9.667488
954.0000 10.240755
955.0000 10.779331
956.0000 11.179144
957.0000 13.229376
958.0000 7.410844
997.0000 7.661486
998.0000 8.840977
1001.0000 18.095643
1002.0000 13.997780
1015.0000 22.686984
1016.0000 16.782592
1029.0000 12.983071
1030.0000 9.801048
1057.0000 19.730452
1058.0000 18.367966
1059.0000 8.489731
1071.0000 32.429057
1072.0000 25.321758
1073.0000 10.600673
1099.0000 13.615313
1100.0000 11.909387
1113.0000 7.328453
1141.0000 10.377784
1142.0000 8.899951
1169.0000 9.182682
1170.0000 8.559981
1174.0000 11.701242
1175.0000 9.643204
1211.0000 8.564317
1212.0000 7.450739
1232.0000 8.220877
1233.0000 10.583328
1234.0000 63.580622
1235.0000 57.284223
1236.0000 27.805627
1237.0000 10.240755
1239.0000 8.525290
1240.0000 7.383092
1248.0000 10.496600
1249.0000 10.277180
1250.0000 7.623326
1251.0000 7.525324
1252.0000 6.965066
1267.0000 7.997121
1292.0000 14.514674
1294.0000 100.000000
1295.0000 98.534309
1296.0000 79.849788
1297.0000 27.248838
1298.0000 7.665823
1308.0000 27.751856
1309.0000 26.378963
1310.0000 15.487754
1311.0000 13.170402
1312.0000 9.049122
1354.0000 43.872719
1355.0000 44.079130
1356.0000 23.637515
1357.0000 8.897350
1368.0000 11.167869
1369.0000 10.802748

>  <PREDICTED SPECTRUM>
20 20
30 30
40 40
50 50
60 60
70 70
80 80
90 90
100 100

$$$$
